! ----  This file was generated with Archsim v.4.3.1.0

Version,8.4;

ProgramControl,
4; !- Number of Threads Allowed

RunPeriod,
  Archsim,                 !- Name
  1,                       !- Begin Month
  1,                       !- Begin Day of Month
  12,                      !- End Month
  31,                      !- End Day of Month
  UseWeatherFile,          !- Day of Week for Start Day
  No,                      !- Use Weather File Holidays and Special Days
  No,                      !- Use Weather File Daylight Saving Period
  Yes,                     !- Apply Weekend Holiday Rule
  Yes,                     !- Use Weather File Rain Indicators
  Yes,                     !- Use Weather File Snow Indicators
  1;                       !- Number of Times Runperiod to be Repeated

RunPeriodControl:DaylightSavingTime,
  Last Sunday in March,    !- Start Date
  Last Sunday in October;  !- End Date

Site:GroundTemperature:BuildingSurface,18;

Site:GroundReflectance,0.2,0.2,0.2,0.2,0.2,0.2,0.2,0.2,0.2,0.2,0.2,0.2;

Site:GroundReflectance:SnowModifier,
  1.0,                     !- Ground Reflected Solar Modifier
  1.0;                     !- Daylighting Ground Reflected Solar Modifier

SimulationControl,
  No,                      !- Do Zone Sizing Calculation
  No,                      !- Do System Sizing Calculation
  No,                      !- Do Plant Sizing Calculation
  No,                      !- Run Simulation for Sizing Periods
  Yes;                     !- Run Simulation for Weather File Run Periods



ConvergenceLimits,
  1,                       !- Minimum System Timestep {minutes}
  50;                      !- Maximum HVAC Iterations

ScheduleTypeLimits,
  Any Number;              !- Name

ScheduleTypeLimits,
  Fraction,                !- Name
  0.0,                     !- Lower Limit Value
  1.0,                     !- Upper Limit Value
  CONTINUOUS;              !- Numeric Type

ScheduleTypeLimits,
  Temperature,             !- Name
  -60,                     !- Lower Limit Value
  200,                     !- Upper Limit Value
  CONTINUOUS;              !- Numeric Type

ScheduleTypeLimits,
  Control Type,            !- Name
  0,                       !- Lower Limit Value
  4,                       !- Upper Limit Value
  DISCRETE;                !- Numeric Type

ScheduleTypeLimits,
  On/Off,                  !- Name
  0,                       !- Lower Limit Value
  1,                       !- Upper Limit Value
  DISCRETE;                !- Numeric Type

Schedule:Constant,
  On,                      !- Name
  On/Off,                  !- Schedule Type Limits Name
  1;                       !- Value

Schedule:Constant,
  Off,                     !- Name
  On/Off,                  !- Schedule Type Limits Name
  0;                       !- Value


GlobalGeometryRules,
  LowerLeftCorner,         !- Starting Vertex Position
  CounterClockWise,        !- Vertex Entry Direction
  World;                !- Coordinate System

! -------------------------ERL SENSORS--------------------------

EnergyManagementSystem:Sensor,                                             
  OutdoorTemp, !- Name                                         
  Environment, !- Output:Variable Index Key Name               
  Site Outdoor Air Drybulb Temperature; !- Output:Variable Name
EnergyManagementSystem:Sensor,                                             
  OutdoorRelHumid, !- Name                                         
  Environment, !- Output:Variable Index Key Name               
  Site Outdoor Air Relative Humidity; !- Output:Variable Name


Output:EnergyManagementSystem,
  Verbose,                 !- Actuator Availability Dictionary Reporting
  Verbose,                 !- Internal Variable Availability Dictionary Reporting
  Verbose;                 !- EMS Runtime Language Debug Output Level



ShadowCalculation,
  AverageOverDaysInFrequency,  !- Calculation Method
  20,                      !- Calculation Frequency
  15000,                   !- Maximum Figures in Shadow Overlap Calculations
  SutherlandHodgman,       !- Polygon Clipping Algorithm
  SimpleSkyDiffuseModeling;!- Sky Diffuse Modeling Algorithm

Building,
  Building,                !- Name
  0,                       !- North Axis [deg]
  Suburbs,                 !- Terrain
  .04,                     !- Loads Convergence Tolerance Value
  .4,                      !- Temperature Convergence Tolerance Value {deltaC}
  FullExterior,            !- Solar Distribution   should be  FullInteriorAndExterior
  25,                      !- Maximum Number of Warmup Days
  ;                        !- Minimum Number of Warmup Days

HeatBalanceAlgorithm,
    ConductionTransferFunction,  !- Algorithm
    200,                     !- Surface Temperature Upper Limit {C}
    0.1,                     !- Minimum Surface Convection Heat Transfer Coefficient Value {W/m2-K}
    1000;                    !- Maximum Surface Convection Heat Transfer Coefficient Value {W/m2-K}

Timestep,4;

SurfaceConvectionAlgorithm:Inside,TARP;

SurfaceConvectionAlgorithm:Outside,DOE-2;

! ------------ CONSTRUCTIONS 

! Boston_Res_Thm_0 Type: Facade
Construction, Boston_Res_Thm_0,
Boston_Gypsum_Plaster_0.02_Boston_Res_Thm_0,
Boston_Softwood_General_0.02_Boston_Res_Thm_0,
Boston_Gypsum_Plaster_0.02_Boston_Res_Thm_0;

Construction, Boston_Res_Thm_0_FLIPPED,
Boston_Gypsum_Plaster_0.02_Boston_Res_Thm_0,
Boston_Softwood_General_0.02_Boston_Res_Thm_0,
Boston_Gypsum_Plaster_0.02_Boston_Res_Thm_0;



! Materials
!- Material: Boston_Gypsum_Plaster Type: No Category
Material, Boston_Gypsum_Plaster_0.02_Boston_Res_Thm_0 ,                !- Material name 
 Rough,                                         !- Roughness
 0.02,                                         !- Thickness {m}
 0.42,                                          !- Conductivity {w/m-K}
 900,                                          !- Density {kg/m3}
 840,                                          !- Specific Heat {J/kg-K}
 0.9,                                           !- Thermal Emittance
 0.7,                                           !- Solar Absorptance
 0.7;                                           !- Visible Absorptance

!- Material: Boston_Softwood_General Type: No Category
Material, Boston_Softwood_General_0.02_Boston_Res_Thm_0 ,                !- Material name 
 Rough,                                         !- Roughness
 0.02,                                         !- Thickness {m}
 0.13,                                          !- Conductivity {w/m-K}
 496,                                          !- Density {kg/m3}
 1630,                                          !- Specific Heat {J/kg-K}
 0.9,                                           !- Thermal Emittance
 0.6,                                           !- Solar Absorptance
 0.6;                                           !- Visible Absorptance



! Boston_Res_Fac_0_MS Type: Facade
Construction, Boston_Res_Fac_0_MS,
Boston_Clay_Brick_H_0.06_Boston_Res_Fac_0_MS,
Boston_XPS_Board_0.02_Boston_Res_Fac_0_MS,
Boston_Concrete_Block_H_0.15_Boston_Res_Fac_0_MS,
Boston_Fiberglass_Batts_0.05_Boston_Res_Fac_0_MS,
Boston_Gypsum_Board_0.015_Boston_Res_Fac_0_MS;

Construction, Boston_Res_Fac_0_MS_FLIPPED,
Boston_Gypsum_Board_0.015_Boston_Res_Fac_0_MS,
Boston_Fiberglass_Batts_0.05_Boston_Res_Fac_0_MS,
Boston_Concrete_Block_H_0.15_Boston_Res_Fac_0_MS,
Boston_XPS_Board_0.02_Boston_Res_Fac_0_MS,
Boston_Clay_Brick_H_0.06_Boston_Res_Fac_0_MS;



! Materials
!- Material: Boston_Clay_Brick_H Type: No Category
Material, Boston_Clay_Brick_H_0.06_Boston_Res_Fac_0_MS ,                !- Material name 
 Rough,                                         !- Roughness
 0.06,                                         !- Thickness {m}
 0.41,                                          !- Conductivity {w/m-K}
 1000,                                          !- Density {kg/m3}
 920,                                          !- Specific Heat {J/kg-K}
 0.9,                                           !- Thermal Emittance
 0.5,                                           !- Solar Absorptance
 0.5;                                           !- Visible Absorptance

!- Material: Boston_XPS_Board Type: No Category
Material, Boston_XPS_Board_0.02_Boston_Res_Fac_0_MS ,                !- Material name 
 Rough,                                         !- Roughness
 0.02,                                         !- Thickness {m}
 0.037,                                          !- Conductivity {w/m-K}
 40,                                          !- Density {kg/m3}
 1200,                                          !- Specific Heat {J/kg-K}
 0.6,                                           !- Thermal Emittance
 0.6,                                           !- Solar Absorptance
 0.6;                                           !- Visible Absorptance

!- Material: Boston_Concrete_Block_H Type: No Category
Material, Boston_Concrete_Block_H_0.15_Boston_Res_Fac_0_MS ,                !- Material name 
 Rough,                                         !- Roughness
 0.15,                                         !- Thickness {m}
 1.25,                                          !- Conductivity {w/m-K}
 880,                                          !- Density {kg/m3}
 840,                                          !- Specific Heat {J/kg-K}
 0.9,                                           !- Thermal Emittance
 0.7,                                           !- Solar Absorptance
 0.7;                                           !- Visible Absorptance

!- Material: Boston_Fiberglass_Batts Type: No Category
Material, Boston_Fiberglass_Batts_0.05_Boston_Res_Fac_0_MS ,                !- Material name 
 Rough,                                         !- Roughness
 0.05,                                         !- Thickness {m}
 0.043,                                          !- Conductivity {w/m-K}
 12,                                          !- Density {kg/m3}
 840,                                          !- Specific Heat {J/kg-K}
 0.9,                                           !- Thermal Emittance
 0.6,                                           !- Solar Absorptance
 0.6;                                           !- Visible Absorptance

!- Material: Boston_Gypsum_Board Type: No Category
Material, Boston_Gypsum_Board_0.015_Boston_Res_Fac_0_MS ,                !- Material name 
 Rough,                                         !- Roughness
 0.015,                                         !- Thickness {m}
 0.16,                                          !- Conductivity {w/m-K}
 950,                                          !- Density {kg/m3}
 840,                                          !- Specific Heat {J/kg-K}
 0.9,                                           !- Thermal Emittance
 0.6,                                           !- Solar Absorptance
 0.6;                                           !- Visible Absorptance



! Boston_Res_Par_0 Type: Partition
Construction, Boston_Res_Par_0,
Boston_Gypsum_Plaster_0.02_Boston_Res_Par_0,
Boston_Softwood_General_0.02_Boston_Res_Par_0,
Boston_Gypsum_Plaster_0.02_Boston_Res_Par_0;

Construction, Boston_Res_Par_0_FLIPPED,
Boston_Gypsum_Plaster_0.02_Boston_Res_Par_0,
Boston_Softwood_General_0.02_Boston_Res_Par_0,
Boston_Gypsum_Plaster_0.02_Boston_Res_Par_0;



! Materials
!- Material: Boston_Gypsum_Plaster Type: No Category
Material, Boston_Gypsum_Plaster_0.02_Boston_Res_Par_0 ,                !- Material name 
 Rough,                                         !- Roughness
 0.02,                                         !- Thickness {m}
 0.42,                                          !- Conductivity {w/m-K}
 900,                                          !- Density {kg/m3}
 840,                                          !- Specific Heat {J/kg-K}
 0.9,                                           !- Thermal Emittance
 0.7,                                           !- Solar Absorptance
 0.7;                                           !- Visible Absorptance

!- Material: Boston_Softwood_General Type: No Category
Material, Boston_Softwood_General_0.02_Boston_Res_Par_0 ,                !- Material name 
 Rough,                                         !- Roughness
 0.02,                                         !- Thickness {m}
 0.13,                                          !- Conductivity {w/m-K}
 496,                                          !- Density {kg/m3}
 1630,                                          !- Specific Heat {J/kg-K}
 0.9,                                           !- Thermal Emittance
 0.6,                                           !- Solar Absorptance
 0.6;                                           !- Visible Absorptance



! Boston_Res_Inf_0 Type: InteriorFloor
Construction, Boston_Res_Inf_0,
Boston_Wood_Floor_0.02_Boston_Res_Inf_0,
Boston_XPS_Board_0.01_Boston_Res_Inf_0,
Boston_Plywood_Board_0.02_Boston_Res_Inf_0,
Boston_Air_Floor_15cm_0.15_Boston_Res_Inf_0,
Boston_Gypsum_Board_0.02_Boston_Res_Inf_0;

Construction, Boston_Res_Inf_0_FLIPPED,
Boston_Gypsum_Board_0.02_Boston_Res_Inf_0,
Boston_Air_Floor_15cm_0.15_Boston_Res_Inf_0,
Boston_Plywood_Board_0.02_Boston_Res_Inf_0,
Boston_XPS_Board_0.01_Boston_Res_Inf_0,
Boston_Wood_Floor_0.02_Boston_Res_Inf_0;



! Materials
!- Material: Boston_Wood_Floor Type: No Category
Material, Boston_Wood_Floor_0.02_Boston_Res_Inf_0 ,                !- Material name 
 Rough,                                         !- Roughness
 0.02,                                         !- Thickness {m}
 0.14,                                          !- Conductivity {w/m-K}
 650,                                          !- Density {kg/m3}
 1200,                                          !- Specific Heat {J/kg-K}
 0.85,                                           !- Thermal Emittance
 0.6,                                           !- Solar Absorptance
 0.6;                                           !- Visible Absorptance

!- Material: Boston_XPS_Board Type: No Category
Material, Boston_XPS_Board_0.01_Boston_Res_Inf_0 ,                !- Material name 
 Rough,                                         !- Roughness
 0.01,                                         !- Thickness {m}
 0.037,                                          !- Conductivity {w/m-K}
 40,                                          !- Density {kg/m3}
 1200,                                          !- Specific Heat {J/kg-K}
 0.6,                                           !- Thermal Emittance
 0.6,                                           !- Solar Absorptance
 0.6;                                           !- Visible Absorptance

!- Material: Boston_Plywood_Board Type: No Category
Material, Boston_Plywood_Board_0.02_Boston_Res_Inf_0 ,                !- Material name 
 Rough,                                         !- Roughness
 0.02,                                         !- Thickness {m}
 0.11,                                          !- Conductivity {w/m-K}
 540,                                          !- Density {kg/m3}
 1880,                                          !- Specific Heat {J/kg-K}
 0.9,                                           !- Thermal Emittance
 0.7,                                           !- Solar Absorptance
 0.7;                                           !- Visible Absorptance

!- Material: Boston_Air_Floor_15cm Type: No Category
Material, Boston_Air_Floor_15cm_0.15_Boston_Res_Inf_0 ,                !- Material name 
 Rough,                                         !- Roughness
 0.15,                                         !- Thickness {m}
 0.7,                                          !- Conductivity {w/m-K}
 1.2,                                          !- Density {kg/m3}
 1000,                                          !- Specific Heat {J/kg-K}
 0.01,                                           !- Thermal Emittance
 0.7,                                           !- Solar Absorptance
 0.7;                                           !- Visible Absorptance

!- Material: Boston_Gypsum_Board Type: No Category
Material, Boston_Gypsum_Board_0.02_Boston_Res_Inf_0 ,                !- Material name 
 Rough,                                         !- Roughness
 0.02,                                         !- Thickness {m}
 0.16,                                          !- Conductivity {w/m-K}
 950,                                          !- Density {kg/m3}
 840,                                          !- Specific Heat {J/kg-K}
 0.9,                                           !- Thermal Emittance
 0.6,                                           !- Solar Absorptance
 0.6;                                           !- Visible Absorptance



! Boston_Res_Gro_0 Type: GroundFloor
Construction, Boston_Res_Gro_0,
Boston_XPS_Board_0.02_Boston_Res_Gro_0,
Boston_Concrete_RC_Dense_0.15_Boston_Res_Gro_0,
Boston_Concrete_MC_Light_0.04_Boston_Res_Gro_0,
Boston_Cement_Mortar_0.03_Boston_Res_Gro_0,
Boston_Ceramic_Tile_0.02_Boston_Res_Gro_0;

Construction, Boston_Res_Gro_0_FLIPPED,
Boston_Ceramic_Tile_0.02_Boston_Res_Gro_0,
Boston_Cement_Mortar_0.03_Boston_Res_Gro_0,
Boston_Concrete_MC_Light_0.04_Boston_Res_Gro_0,
Boston_Concrete_RC_Dense_0.15_Boston_Res_Gro_0,
Boston_XPS_Board_0.02_Boston_Res_Gro_0;



! Materials
!- Material: Boston_XPS_Board Type: No Category
Material, Boston_XPS_Board_0.02_Boston_Res_Gro_0 ,                !- Material name 
 Rough,                                         !- Roughness
 0.02,                                         !- Thickness {m}
 0.037,                                          !- Conductivity {w/m-K}
 40,                                          !- Density {kg/m3}
 1200,                                          !- Specific Heat {J/kg-K}
 0.6,                                           !- Thermal Emittance
 0.6,                                           !- Solar Absorptance
 0.6;                                           !- Visible Absorptance

!- Material: Boston_Concrete_RC_Dense Type: No Category
Material, Boston_Concrete_RC_Dense_0.15_Boston_Res_Gro_0 ,                !- Material name 
 Rough,                                         !- Roughness
 0.15,                                         !- Thickness {m}
 1.75,                                          !- Conductivity {w/m-K}
 2400,                                          !- Density {kg/m3}
 840,                                          !- Specific Heat {J/kg-K}
 0.9,                                           !- Thermal Emittance
 0.7,                                           !- Solar Absorptance
 0.7;                                           !- Visible Absorptance

!- Material: Boston_Concrete_MC_Light Type: No Category
Material, Boston_Concrete_MC_Light_0.04_Boston_Res_Gro_0 ,                !- Material name 
 Rough,                                         !- Roughness
 0.04,                                         !- Thickness {m}
 1.65,                                          !- Conductivity {w/m-K}
 2100,                                          !- Density {kg/m3}
 1040,                                          !- Specific Heat {J/kg-K}
 0.9,                                           !- Thermal Emittance
 0.7,                                           !- Solar Absorptance
 0.7;                                           !- Visible Absorptance

!- Material: Boston_Cement_Mortar Type: No Category
Material, Boston_Cement_Mortar_0.03_Boston_Res_Gro_0 ,                !- Material name 
 Rough,                                         !- Roughness
 0.03,                                         !- Thickness {m}
 0.8,                                          !- Conductivity {w/m-K}
 1900,                                          !- Density {kg/m3}
 840,                                          !- Specific Heat {J/kg-K}
 0.9,                                           !- Thermal Emittance
 0.8,                                           !- Solar Absorptance
 0.8;                                           !- Visible Absorptance

!- Material: Boston_Ceramic_Tile Type: No Category
Material, Boston_Ceramic_Tile_0.02_Boston_Res_Gro_0 ,                !- Material name 
 Rough,                                         !- Roughness
 0.02,                                         !- Thickness {m}
 0.8,                                          !- Conductivity {w/m-K}
 2243,                                          !- Density {kg/m3}
 840,                                          !- Specific Heat {J/kg-K}
 0.9,                                           !- Thermal Emittance
 0.4,                                           !- Solar Absorptance
 0.4;                                           !- Visible Absorptance



! Boston_Res_Rof_0 Type: Roof
Construction, Boston_Res_Rof_0,
Boston_Concrete_MC_Light_0.1_Boston_Res_Rof_0,
Boston_Plywood_Board_0.02_Boston_Res_Rof_0,
Boston_Fiberglass_Batts_0.12_Boston_Res_Rof_0,
Boston_Air_Floor_15cm_0.1_Boston_Res_Rof_0,
Boston_Gypsum_Board_0.02_Boston_Res_Rof_0;

Construction, Boston_Res_Rof_0_FLIPPED,
Boston_Gypsum_Board_0.02_Boston_Res_Rof_0,
Boston_Air_Floor_15cm_0.1_Boston_Res_Rof_0,
Boston_Fiberglass_Batts_0.12_Boston_Res_Rof_0,
Boston_Plywood_Board_0.02_Boston_Res_Rof_0,
Boston_Concrete_MC_Light_0.1_Boston_Res_Rof_0;



! Materials
!- Material: Boston_Concrete_MC_Light Type: No Category
Material, Boston_Concrete_MC_Light_0.1_Boston_Res_Rof_0 ,                !- Material name 
 Rough,                                         !- Roughness
 0.1,                                         !- Thickness {m}
 1.65,                                          !- Conductivity {w/m-K}
 2100,                                          !- Density {kg/m3}
 1040,                                          !- Specific Heat {J/kg-K}
 0.9,                                           !- Thermal Emittance
 0.7,                                           !- Solar Absorptance
 0.7;                                           !- Visible Absorptance

!- Material: Boston_Plywood_Board Type: No Category
Material, Boston_Plywood_Board_0.02_Boston_Res_Rof_0 ,                !- Material name 
 Rough,                                         !- Roughness
 0.02,                                         !- Thickness {m}
 0.11,                                          !- Conductivity {w/m-K}
 540,                                          !- Density {kg/m3}
 1880,                                          !- Specific Heat {J/kg-K}
 0.9,                                           !- Thermal Emittance
 0.7,                                           !- Solar Absorptance
 0.7;                                           !- Visible Absorptance

!- Material: Boston_Fiberglass_Batts Type: No Category
Material, Boston_Fiberglass_Batts_0.12_Boston_Res_Rof_0 ,                !- Material name 
 Rough,                                         !- Roughness
 0.12,                                         !- Thickness {m}
 0.043,                                          !- Conductivity {w/m-K}
 12,                                          !- Density {kg/m3}
 840,                                          !- Specific Heat {J/kg-K}
 0.9,                                           !- Thermal Emittance
 0.6,                                           !- Solar Absorptance
 0.6;                                           !- Visible Absorptance

!- Material: Boston_Air_Floor_15cm Type: No Category
Material, Boston_Air_Floor_15cm_0.1_Boston_Res_Rof_0 ,                !- Material name 
 Rough,                                         !- Roughness
 0.1,                                         !- Thickness {m}
 0.7,                                          !- Conductivity {w/m-K}
 1.2,                                          !- Density {kg/m3}
 1000,                                          !- Specific Heat {J/kg-K}
 0.01,                                           !- Thermal Emittance
 0.7,                                           !- Solar Absorptance
 0.7;                                           !- Visible Absorptance

!- Material: Boston_Gypsum_Board Type: No Category
Material, Boston_Gypsum_Board_0.02_Boston_Res_Rof_0 ,                !- Material name 
 Rough,                                         !- Roughness
 0.02,                                         !- Thickness {m}
 0.16,                                          !- Conductivity {w/m-K}
 950,                                          !- Density {kg/m3}
 840,                                          !- Specific Heat {J/kg-K}
 0.9,                                           !- Thermal Emittance
 0.6,                                           !- Solar Absorptance
 0.6;                                           !- Visible Absorptance




! ------------ GLAZING  

! Boston_Dbl_Air_Cl Type: Other
Construction, Boston_Dbl_Air_Cl,
Boston_Glass_Clear_3_0.003_Boston_Dbl_Air_Cl,
AIR_0.006_Boston_Dbl_Air_Cl,
Boston_Glass_Clear_3_0.003_Boston_Dbl_Air_Cl;

Construction, Boston_Dbl_Air_Cl_FLIPPED,
Boston_Glass_Clear_3_0.003_Boston_Dbl_Air_Cl,
AIR_0.006_Boston_Dbl_Air_Cl,
Boston_Glass_Clear_3_0.003_Boston_Dbl_Air_Cl;



! Materials
WindowMaterial:Glazing,Boston_Glass_Clear_3_0.003_Boston_Dbl_Air_Cl,                         !- Generic CLEAR 3MM
 SpectralAverage,                               !- Optical data type {SpectralAverage or Spectral}
 SpectralAverage,                                              !- Name of spectral data set when Optical Data Type = Spectral
 0.003,                                          !- Thickness {m}
 0.83,                                          !- Solar transmittance at normal incidence
 0.07,                                          !- Solar reflectance at normal incidence: front side
 0.07,                                          !- Solar reflectance at normal incidence: back side
 0.89,                                          !- Visible transmittance at normal incidence
 0.08,                                          !- Visible reflectance at normal incidence: front side
 0.08,                                          !- Visible reflectance at normal incidence: back side
 0,                                            !- IR transmittance at normal incidence
 0.84,                                           !- IR emissivity: front side
 0.84,                                           !- IR emissivity: back side
 0.9,                                            !- Conductivity {W/m-K}
 1;                                             !- Dirt Correction Factor for Solar and Visible Transmittance

! Gas: AIR GasType: AIR
WindowMaterial:Gas,AIR_0.006_Boston_Dbl_Air_Cl ,                !- Material name 
 AIR,                                           !- Gas type (Air - Argon - Krypton - Xenon - SF6 - Custom)
 0.006;                                         !- Thickness {m}





! ------------ SCHEDULES  

Schedule:Year,Boston_Res_Y_Occ,
Fraction,
Boston_Res_Y_Occ0,1,1,12,31;

Schedule:Week:Daily, Boston_Res_Y_Occ0,
  Boston_Res_D_Occ_WE, !- Sunday Schedule:Day Name
  Boston_Res_D_Occ_WD, !- Monday Schedule:Day Name
  Boston_Res_D_Occ_WD, !- Tuesday Schedule:Day Name
  Boston_Res_D_Occ_WD, !- Wednesday Schedule:Day Name
  Boston_Res_D_Occ_WD, !- Thursday Schedule:Day Name
  Boston_Res_D_Occ_WD, !- Friday Schedule:Day Name
  Boston_Res_D_Occ_WE, !- Saturday Schedule:Day Name
  Boston_Res_D_Occ_WE, !- Holiday Schedule:Day Name
  Boston_Res_D_Occ_WD, !- SummerDesignDay Schedule:Day Name
  Boston_Res_D_Occ_WD, !- WinterDesignDay Schedule:Day Name
  Boston_Res_D_Occ_WD, !- CustomDay1 Schedule:Day Name
  Boston_Res_D_Occ_WD; !- CustomDay2 Schedule:Day Name

Schedule:Year,Boston_Res_Y_Dhw,
Fraction,
Boston_Res_Y_Dhw0,1,1,12,31;

Schedule:Week:Daily, Boston_Res_Y_Dhw0,
  Boston_Res_D_Dhw_WE, !- Sunday Schedule:Day Name
  Boston_Res_D_Dhw_WD, !- Monday Schedule:Day Name
  Boston_Res_D_Dhw_WD, !- Tuesday Schedule:Day Name
  Boston_Res_D_Dhw_WD, !- Wednesday Schedule:Day Name
  Boston_Res_D_Dhw_WD, !- Thursday Schedule:Day Name
  Boston_Res_D_Dhw_WD, !- Friday Schedule:Day Name
  Boston_Res_D_Dhw_WE, !- Saturday Schedule:Day Name
  Boston_Res_D_Dhw_WE, !- Holiday Schedule:Day Name
  Boston_Res_D_Dhw_WD, !- SummerDesignDay Schedule:Day Name
  Boston_Res_D_Dhw_WD, !- WinterDesignDay Schedule:Day Name
  Boston_Res_D_Dhw_WD, !- CustomDay1 Schedule:Day Name
  Boston_Res_D_Dhw_WD; !- CustomDay2 Schedule:Day Name

Schedule:Year,Boston_Res_Y_Lgt,
Fraction,
Boston_Res_Y_Lgt0,1,1,12,31;

Schedule:Week:Daily, Boston_Res_Y_Lgt0,
  Boston_Res_D_Lgt_WE, !- Sunday Schedule:Day Name
  Boston_Res_D_Lgt_WD, !- Monday Schedule:Day Name
  Boston_Res_D_Lgt_WD, !- Tuesday Schedule:Day Name
  Boston_Res_D_Lgt_WD, !- Wednesday Schedule:Day Name
  Boston_Res_D_Lgt_WD, !- Thursday Schedule:Day Name
  Boston_Res_D_Lgt_WD, !- Friday Schedule:Day Name
  Boston_Res_D_Lgt_WE, !- Saturday Schedule:Day Name
  Boston_Res_D_Lgt_WE, !- Holiday Schedule:Day Name
  Boston_Res_D_Lgt_WD, !- SummerDesignDay Schedule:Day Name
  Boston_Res_D_Lgt_WD, !- WinterDesignDay Schedule:Day Name
  Boston_Res_D_Lgt_WD, !- CustomDay1 Schedule:Day Name
  Boston_Res_D_Lgt_WD; !- CustomDay2 Schedule:Day Name

Schedule:Year,Boston_Res_Y_Plg,
Fraction,
Boston_Res_Y_Plg0,1,1,12,31;

Schedule:Week:Daily, Boston_Res_Y_Plg0,
  Boston_Res_D_Plg_WE, !- Sunday Schedule:Day Name
  Boston_Res_D_Plg_WD, !- Monday Schedule:Day Name
  Boston_Res_D_Plg_WD, !- Tuesday Schedule:Day Name
  Boston_Res_D_Plg_WD, !- Wednesday Schedule:Day Name
  Boston_Res_D_Plg_WD, !- Thursday Schedule:Day Name
  Boston_Res_D_Plg_WD, !- Friday Schedule:Day Name
  Boston_Res_D_Plg_WE, !- Saturday Schedule:Day Name
  Boston_Res_D_Plg_WE, !- Holiday Schedule:Day Name
  Boston_Res_D_Plg_WD, !- SummerDesignDay Schedule:Day Name
  Boston_Res_D_Plg_WD, !- WinterDesignDay Schedule:Day Name
  Boston_Res_D_Plg_WD, !- CustomDay1 Schedule:Day Name
  Boston_Res_D_Plg_WD; !- CustomDay2 Schedule:Day Name

Schedule:Year,Boston_Res_Y_Het,
Fraction,
Boston_Res_Y_Het0,1,1,4,30,
Boston_Res_Y_Het1,5,1,9,30,